Version 4
SHEET 1 880 680
WIRE 352 0 352 -32
WIRE 352 64 320 64
WIRE 400 64 352 64
WIRE 528 64 480 64
WIRE 64 128 -16 128
WIRE -16 160 -16 128
WIRE 64 192 48 192
WIRE -16 256 -16 224
WIRE 64 256 -16 256
WIRE 384 256 320 256
WIRE 384 352 384 320
WIRE 0 0 0 0
FLAG 528 64 0
FLAG 384 352 0
FLAG 352 -32 0
FLAG 48 192 0
SYMBOL PowerProducts\\LT1054 192 160 R0
SYMATTR InstName U1
SYMBOL voltage 384 64 R270
WINDOW 0 32 56 VTop 2
WINDOW 3 -32 56 VBottom 2
WINDOW 123 0 0 Left 0
WINDOW 39 0 0 Left 0
SYMATTR InstName V1
SYMATTR Value 10
SYMBOL cap 368 256 R0
SYMATTR InstName C1
SYMATTR Value 100µ
SYMBOL cap 336 0 R0
SYMATTR InstName C2
SYMATTR Value 2µ
SYMBOL cap -32 160 R0
SYMATTR InstName C3
SYMATTR Value 100µ
TEXT -32 376 Left 2 !.tran 100m
